parallel/no_load/40pc/TNB_DUMA_EXP_SEQVOLTAGES.CSV
Bus,  V1,  p.u.,Base kV, V2, %V2/V1, V0, %V0/V1, Vresidual, %NEMA
"PPU_DUMA_33KV",    19113.3,    1.0032,    33.00, 9.30553E-006, 4.869E-008, 1.23939E-006, 6.484E-009, 3.71815E-006, 6.512E-009
"PPU_DUMA_11KV",    6341.18,   0.99848,    11.00, 3.28927E-006, 5.187E-008, 5.67443E-008, 8.949E-010, 1.70233E-007, 6.572E-009
"RPPLNGI2",    6406.36,    1.0087,    11.00, 3.3188E-006, 5.18E-008, 5.79115E-008, 9.04E-010, 1.73735E-007, 6.504E-009
"PDTJLNMASJID",    6455.38,    1.0165,    11.00, 3.34099E-006, 5.176E-008, 5.9055E-008, 9.148E-010, 1.77165E-007, 6.453E-009
"BELLA",    6488.11,    1.0216,    11.00, 3.3558E-006, 5.172E-008, 5.99345E-008, 9.238E-010, 1.79801E-007, 6.42E-009
"PSTPDGN",    6504.49,    1.0242,    11.00, 3.36322E-006, 5.171E-008, 6.04071E-008, 9.287E-010, 1.8122E-007, 6.403E-009
"PAMDRA",    6347.83,   0.99952,    11.00, 3.29232E-006, 5.187E-008, 5.68318E-008, 8.953E-010, 1.70495E-007, 6.566E-009
"DUMA4",    6370.25,    1.0031,    11.00, 3.30262E-006, 5.184E-008, 6.17615E-008, 9.695E-010, 1.85284E-007, 6.545E-009
"PLSDRA",    6420.02,    1.0109,    11.00, 3.3256E-006, 5.18E-008, 8.49906E-008, 1.324E-009, 2.5497E-007, 6.5E-009
"SSU_UPTWRES_IR1",    6428.31,    1.0122,    11.00, 3.32943E-006, 5.179E-008, 8.55089E-008, 1.33E-009, 2.56525E-007, 6.493E-009
"ATRIA_1",    6429.69,    1.0124,    11.00, 3.32941E-006, 5.178E-008, 5.8423E-008, 9.086E-010, 1.75267E-007, 6.481E-009
"HAWKER",     6444.9,    1.0148,    11.00, 3.33635E-006, 5.177E-008, 7.2127E-008, 1.119E-009, 2.16381E-007, 6.465E-009
"PRMTE",    6400.65,    1.0078,    11.00, 3.31667E-006, 5.182E-008, 7.82993E-008, 1.223E-009, 2.34896E-007, 6.517E-009
"PRMTA",    6410.62,    1.0094,    11.00, 3.32126E-006, 5.181E-008, 7.88842E-008, 1.231E-009, 2.36651E-007, 6.508E-009
"PMONTB",    6418.51,    1.0107,    11.00, 3.3249E-006, 5.18E-008, 8.32528E-008, 1.297E-009, 2.49756E-007, 6.501E-009
"DUMA7",    6365.38,    1.0023,    11.00, 3.30001E-006, 5.184E-008, 5.76164E-008, 9.052E-010, 1.7285E-007, 6.543E-009
"HAUS",    6413.81,    1.0099,    11.00, 3.32149E-006, 5.179E-008, 1.03861E-007, 1.619E-009, 3.11582E-007, 6.486E-009
"DUMA6",    6546.01,    1.0307,    11.00, 3.37973E-006, 5.163E-008, 3.36093E-007, 5.134E-009, 1.00828E-006, 6.329E-009
"DUMA13",    6665.65,    1.0496,    11.00, 3.43208E-006, 5.149E-008, 5.78189E-007, 8.674E-009, 1.73456E-006, 6.187E-009
"SSU_DUMA5_IM2",     6681.6,    1.0521,    11.00, 3.43901E-006, 5.147E-008, 5.81293E-007, 8.7E-009, 1.74387E-006, 6.167E-009
"PLNGI_B",    6374.48,    1.0037,    11.00, 3.30432E-006, 5.184E-008, 5.72276E-008, 8.978E-010, 1.71684E-007, 6.537E-009
"PLNGI_D",    6391.16,    1.0063,    11.00, 3.31186E-006, 5.182E-008, 5.75116E-008, 8.999E-010, 1.72534E-007, 6.519E-009
"PDTLITRAK",    6499.42,    1.0234,    11.00, 3.36201E-006, 5.173E-008, 6.06335E-008, 9.329E-010, 1.81901E-007, 6.425E-009
"DUMA12",    6563.35,    1.0335,    11.00, 3.39144E-006, 5.167E-008, 6.27762E-008, 9.565E-010, 1.88326E-007, 6.369E-009
"TMNGH4",    6623.49,    1.0429,    11.00, 3.41928E-006, 5.162E-008, 9.02903E-008, 1.363E-009, 2.70869E-007, 6.32E-009
"SSU_TMEGAH3_IR1",    6647.53,    1.0467,    11.00, 3.43043E-006, 5.16E-008, 1.05118E-007, 1.581E-009, 3.15351E-007, 6.3E-009
"TMNGH2",    6657.94,    1.0484,    11.00, 3.43527E-006, 5.16E-008, 1.11892E-007, 1.681E-009, 3.35672E-007, 6.292E-009
"SPRK9",    6487.27,    1.0215,    11.00, 3.35569E-006, 5.173E-008, 5.99691E-008, 9.244E-010, 1.79907E-007, 6.425E-009
"BOMBA",    6495.46,    1.0228,    11.00, 3.35943E-006, 5.172E-008, 6.17926E-008, 9.513E-010, 1.85376E-007, 6.417E-009
"SPRK8",    6515.92,     1.026,    11.00, 3.36877E-006, 5.17E-008, 6.87349E-008, 1.055E-009, 2.06202E-007, 6.398E-009
"SSU_UPTWRES_IM2",    6366.06,    1.0024,    11.00, 3.30061E-006, 5.185E-008, 6.14681E-008, 9.656E-010, 1.84404E-007, 6.547E-009
"MAYBANK",     6399.3,    1.0076,    11.00, 3.31576E-006, 5.181E-008, 6.27777E-008, 9.81E-010, 1.88332E-007, 6.514E-009
"DUMA8",    6405.54,    1.0086,    11.00, 3.31861E-006, 5.181E-008, 6.49363E-008, 1.014E-009, 1.94808E-007, 6.508E-009
"SSU_DSARCNTR_IR1",    6357.93,    1.0011,    11.00, 3.29684E-006, 5.185E-008, 5.69639E-008, 8.959E-010, 1.70892E-007, 6.554E-009
"DUMA9",    6453.15,    1.0161,    11.00, 3.34001E-006, 5.176E-008, 5.90454E-008, 9.15E-010, 1.77135E-007, 6.456E-009
"DUMA1",    6498.86,    1.0233,    11.00, 3.36071E-006, 5.171E-008, 6.02984E-008, 9.278E-010, 1.80895E-007, 6.41E-009
"ELITE",    6515.21,    1.0259,    11.00, 3.36811E-006, 5.17E-008, 6.0787E-008, 9.33E-010, 1.8236E-007, 6.393E-009
"DUMA10",    6420.47,     1.011,    11.00, 3.32515E-006, 5.179E-008, 5.8141E-008, 9.056E-010, 1.74422E-007, 6.489E-009
"BALAIPOLIS",     6421.3,    1.0111,    11.00, 3.32553E-006, 5.179E-008, 5.81582E-008, 9.057E-010, 1.74474E-007, 6.488E-009
"PPU_DUMA_VCB1",          0,         0,    33.00,          0,        0,          0,        0,          0,        0
